!B3LYP 6-31G(d) OPT FREQ
%CPCM SMD TRUE
      SMDSOLVENT "CH2Cl2"
END
*xyz 0 1
  C          1.12116       -3.06919        0.23627
C          0.35683       -4.46269        0.21590
C         -0.44058       -4.49135       -1.10599
C          0.19350       -3.43973       -2.02123
C          0.56773       -2.24995       -1.03341
C          2.02399       -0.04457       -0.94813
C          1.22326        1.21017       -1.04339
C          0.79707        1.63531       -2.44425
C          0.42454        0.37110       -3.27223
C          1.39903       -0.80076       -3.14589
C          1.65026       -1.28543       -1.69937
O          1.06981        1.84776       -0.01344
C         -0.45905        2.56625       -2.41521
C         -0.22457        3.99313       -1.99561
C          2.00363        2.33699       -3.10092
C         -0.10233        5.08437       -2.83662
O          0.09013        6.22655       -2.13154
C          0.07392        5.88485       -0.81962
C         -0.12875        4.53282       -0.68007
C         -0.71725       -1.48040       -0.62087
O         -0.77788       -3.01770       -2.98402
C          1.26730       -4.10954       -2.85520
C          2.50992       -4.35691       -2.55841
C          3.75608       -4.61260       -2.30127
C          1.13730       -2.38555        1.63450
H          2.17660       -3.26061        0.00313
O          1.31570       -0.97682        1.49364
C         -0.64266       -4.74356        1.35097
C          1.33700       -5.63843        0.22381
O          2.48200       -5.58353        0.66120
H          2.57830       -1.86819       -1.74696
N          3.19265        0.09319       -0.35875
N          4.22133        0.19848        0.12253
O         -1.47668        1.94868       -1.59274
O         -3.13080        2.62657       -3.03716
C         -2.76408        2.10923       -1.99266
C         -3.68749        1.51224       -0.97506
C          2.26668       -2.89516        2.54767
O          3.23573       -2.20497        2.84794
O          2.00370       -4.12951        3.04016
C          3.04496       -4.66381        3.85869
H         -0.46012       -5.48484       -1.57334
H         -1.49660       -4.24642       -0.92858
H         -0.57818        0.02368       -3.01438
H          0.36127        0.64724       -4.33384
H          1.06655       -1.60938       -3.79937
H          2.36283       -0.48999       -3.57184
H         -0.82337        2.60719       -3.45292
H          1.75208        2.70256       -4.10255
H          2.35099        3.18676       -2.50258
H          2.86472        1.66765       -3.19888
H         -0.12998        5.20427       -3.91123
H          0.21258        6.69771       -0.12077
H         -0.19107        3.99715        0.25794
H         -0.50947       -0.60737       -0.00036
H         -1.28617       -1.12266       -1.47934
H         -1.40079       -2.11067       -0.04429
H         -1.65474       -2.97890       -2.56875
H          0.91666       -4.51704       -3.80268
H          4.46391       -4.78565       -3.10404
H          4.11481       -4.66837       -1.27826
H          0.19203       -2.49259        2.17054
H          2.03902       -0.70260        2.09848
H         -1.19145       -5.67499        1.16060
H         -0.15738       -4.87679        2.31984
H         -1.38672       -3.94630        1.44566
H          0.93089       -6.60356       -0.12853
H         -4.72117        1.75648       -1.23563
H         -3.57082        0.42588       -0.96245
H         -3.47526        1.93254        0.01160
H          2.77249       -5.68847        4.12604
H          3.99316       -4.68984        3.31222
H          3.14221       -4.07850        4.77821
*