73
Coordinates from ORCA-job SS001-2 E -1872.724388593400
  C          -1.49728175761014     -0.09198205999280     -0.51926375373491
  C          -2.92736372175531     -0.54987207924361     -1.02439093896675
  C          -2.71536735914912     -1.05153961464799     -2.48342101239411
  C          -1.19980990208327     -1.16804176568250     -2.68709659035589
  C          -0.61179697854238      0.04461519748099     -1.81618659104304
  C           1.53973972468333     -0.47613519945361     -0.31314847013116
  C           2.44930343093404      0.32446874891905      0.51811079091226
  C           2.98406987635666      1.66733924931658     -0.04119599242536
  C           2.23909857979925      2.10085763653085     -1.32957235357808
  C           1.91660024541308      0.94149961352429     -2.27210666343284
  C           0.97834562436360     -0.14830199380065     -1.68990269142067
  O           2.85640499396680     -0.12515877890499      1.59271397646785
  C           2.78288128035724      2.82466463299132      1.00204518042223
  C           3.33029423312655      4.16264767444946      0.58095217612264
  C           4.48409083984715      1.41354282361662     -0.32156521871369
  C           2.59604938708844      5.21026763028823      0.10506475711634
  O           3.39523941408394      6.28267047422446     -0.15877584434374
  C           4.67030588882028      5.91573973121550      0.16823420489537
  C           4.69414792238052      4.63521000549655      0.62498765212466
  C          -0.94173970331608      1.37275979736593     -2.53554145575399
  O          -0.80793599238474     -1.08693345236109     -4.05985943121431
  C          -0.68370891217369     -2.54502207317272     -2.26503606590098
  C          -1.40235869954557     -3.54004211250093     -1.80818537248508
  C          -2.09580727245794     -4.55294152412514     -1.35451808742190
  C          -1.53553568262690      1.12269108795918      0.45951882160483
  H          -1.10539277959572     -0.93269193427491      0.06050493728208
  O          -0.25801116778914      1.70655056715066      0.66397375526434
  C          -4.07604446209918      0.49797201497662     -1.03978093899919
  C          -3.47192501564538     -1.68396060668024     -0.16270324907140
  O          -3.02674651532783     -2.04550116516988      0.90905173313285
  H           1.19666050143186     -1.01009370561447     -2.32302066186115
  N           1.31928229166957     -1.66539743120594      0.19582459241613
  N           1.15282128721358     -2.68722217360071      0.67005578601199
  O           3.41366671946403      2.50820002195758      2.27006512453593
  O           1.40193202620014      2.06647578267286      3.22464272907147
  C           2.61758493778573      2.11217705993738      3.28474334323345
  C           3.43385768119421      1.74307363247412      4.49470806576872
  C          -2.04240130654089      0.68284906535996      1.84269972294919
  O          -1.27899628006850      0.29794271147006      2.70845534102725
  O          -3.36215464804865      0.80106062704601      2.00715942018497
  C          -3.88931266142790      0.33402653237855      3.26946799916610
  H          -3.23263622602207     -1.99506931861677     -2.68651226661984
  H          -3.11780597621150     -0.31775675971262     -3.18965846721569
  H           1.31359716738476      2.61104502235722     -1.04959490670543
  H           2.85918238092025      2.83120375371033     -1.86152816211201
  H           1.51091450623278      1.33106117921777     -3.20837384807348
  H           2.85105098263799      0.43320922751214     -2.54346053535244
  H           1.71226771204897      2.92903947768509      1.17574905299488
  H           4.94953533914778      2.30068600798428     -0.76223968499190
  H           5.01092633310640      1.15651464913055      0.60173745284068
  H           4.61491108566739      0.58313123840262     -1.02479129317609
  H           1.54177539032120      5.34715744784540     -0.08883410203969
  H           5.42943872257989      6.67088637615496      0.02295545966046
  H           5.56273771694275      4.09135677416838      0.96914847649491
  H          -0.55971165159526      2.22431271571709     -1.96777904334563
  H          -0.49980977813382      1.42311834622418     -3.53466527559465
  H          -2.01753965990245      1.52186518752464     -2.65230096822413
  H          -1.23042209420198     -0.29867400098027     -4.44409795511147
  H           0.37416748589531     -2.73662106744793     -2.44089985921241
  H          -2.55496281131149     -5.27446419127160     -2.03001540215154
  H          -2.24090725270227     -4.71209315899721     -0.28690078428167
  H          -2.19330611799140      1.90195782371839      0.06477578065143
  H           0.07048375508139      1.41758574301541      1.53993891280940
  H          -4.96918312332351      0.03709716257099     -1.48022475995938
  H          -4.34007271618728      0.85688956960782     -0.04394922011192
  H          -3.81550202483383      1.35877558808457     -1.66270844145778
  H          -4.38384893339125     -2.16267720558463     -0.57941776910062
  H           2.78358536151906      1.64476786732367      5.36607071881297
  H           3.92883222638741      0.78350084197037      4.30357297908229
  H           4.21196228921559      2.48880249840047      4.68460507623371
  H          -4.96604892134170      0.49575044517176      3.21091426285908
  H          -3.66799572810686     -0.72778459995276      3.39945457100177
  H          -3.46161150782408      0.90874071069477      4.09490127493376
